%nprocshared=40
# rpbe1pbe 6-311++g(d,p) scrf=(smd,solvent=methanol) empiricaldispersion=gd3bj pop=nboread

Conformation

0 1
 C                 -3.04581000   -0.17361600   -0.52627700
 C                 -1.63688400   -0.12381700    0.00349500
 N                 -0.89258200   -1.29545600   -0.39129100
 H                 -1.13336800   -1.60198300   -1.32877800
 C                  0.54347000   -1.13575600   -0.28049800
 C                  1.22329500   -2.44757800    0.02967100
 H                  2.30976900   -2.35308200    0.01422400
 H                  0.90310500   -2.79034100    1.01645700
 H                  0.92186200   -3.19935200   -0.70554500
 O                  1.10902100   -0.69973200   -1.53752500
 O                  0.99504500    0.74887000   -1.57455000
 C                  0.36269300    1.14270600   -0.36062400
 C                  0.75622500    2.57424500   -0.10769000
 H                  0.33856000    2.89617900    0.84916500
 H                  1.83977000    2.69180400   -0.08739400
 H                  0.34288200    3.20763800   -0.89689700
 O                 -1.03664900    1.08714800   -0.53747000
 C                  0.81675800    0.06418300    0.64320600
 C                 -0.06307800    0.03757200    1.89077500
 C                 -1.54866900    0.00345600    1.51589300
 H                 -2.06270800   -0.84138100    1.97983800
 H                 -2.06088500    0.92019100    1.81866200
 H                  0.17309700    0.91613400    2.49756800
 H                  0.21899400   -0.83761600    2.48328600
 C                  2.28359500    0.19736000    1.01067700
 H                  2.44851100    1.12178100    1.56993300
 H                  2.93188900    0.20480300    0.13144700
 H                  2.58397100   -0.63382000    1.65415600
 H                 -3.58827600    0.72775400   -0.23230800
 H                 -3.03987300   -0.23965800   -1.61839500
 H                 -3.56812500   -1.04368000   -0.12178500

$NBO FNBO=W69 E2PERT=0.01 FILE=example $END



